 12
Filename: C:\EPSR18\run\benzene\benzene.ato
H         0.649    -2.159     1.017
C         0.474    -1.203     0.602
H         1.693    -1.149    -1.119
C         0.643    -0.889    -0.708
C        -0.449    -0.370     1.255
H        -1.398    -0.898     1.638
H         1.023     0.855    -2.053
C         0.606     0.469    -1.129
C        -1.020     0.733     0.526
H        -1.713     1.347     1.048
C        -0.271     1.198    -0.533
H        -0.144     2.374    -0.608
